
<routes>

    <vType id="type1" accel="0.6344642582676897" decel="1.2689285165353794" sigma="0.877923052324028" tau="1.5930652946664674" length="4.72839874099615" maxSpeed="42.689285165353795" guiShape="passenger" laneChangeModel="LC2013" />

    <vType id="type2" accel="0.9751545480695561" decel="1.9503090961391123" sigma="0.7406954524592764" tau="1.9749982765253808" length="3.076435428557336" maxSpeed="49.50309096139112" guiShape="evehicle" laneChangeModel="LC2013" />

    <vType id="type3" accel="1.4646130813248144" decel="2.9292261626496288" sigma="0.2921429364165758" tau="2.4204239970094616" length="2.048322548974063" maxSpeed="59.292261626496284" guiShape="truck" laneChangeModel="LC2013" />

    <vType id="type4" accel="0.6021383572201969" decel="1.2042767144403939" sigma="0.5380765540288984" tau="1.5519514905050311" length="4.9822436389032845" maxSpeed="42.04276714440394" guiShape="evehicle" laneChangeModel="LC2013" />

    <vType id="type5" accel="0.6027355743835999" decel="1.2054711487671999" sigma="0.21899964655905962" tau="1.552720933566106" length="4.97730701073686" maxSpeed="42.054711487671995" guiShape="passenger" laneChangeModel="LC2013" />

    <vType id="type6" accel="0.7640325909160894" decel="1.5280651818321789" sigma="0.47871552377578597" tau="1.7481791566267908" length="3.9265340715412984" maxSpeed="45.280651818321786" guiShape="truck" laneChangeModel="LC2013" />

    <vType id="type7" accel="1.0711835932843439" decel="2.1423671865686877" sigma="0.6906920753916193" tau="2.069959993124837" length="2.8006403559652497" maxSpeed="51.42367186568688" guiShape="truck" laneChangeModel="LC2013" />

    <vType id="type8" accel="0.5288633902023655" decel="1.057726780404731" sigma="0.5800904909992671" tau="1.4544598862840674" length="5.672542391055038" maxSpeed="40.57726780404731" guiShape="evehicle" laneChangeModel="LC2013" />

    <vType id="type9" accel="1.0215133601254043" decel="2.0430267202508086" sigma="0.6383359457530194" tau="2.0213988820867637" length="2.936819151960685" maxSpeed="50.430267202508084" guiShape="truck" laneChangeModel="LC2013" />

    <vType id="type10" accel="0.6431072803821472" decel="1.2862145607642943" sigma="0.43076935239885705" tau="1.6038793974387815" length="4.664851559785391" maxSpeed="42.862145607642944" guiShape="passenger" laneChangeModel="LC2013" />


    <vehicle id="0" type="type3" depart="0" color="1,0,0">
      <route edges="32-31 31-30 30-29 29-22 22-23 23-24 24-25 25-26 26-27 27-28 28-21 21-14 14-13 13-12 12-11 11-9 9-10 10-11 11-12 12-13 13-14 14-21 21-20 20-19 19-18 18-17 17-16 16-15 15-7 7-8 8-9 9-17 17-16 16-15 15-22 22-23 23-24 24-25 25-26 26-27 27-28 28-35 35-34 34-33 33-32 32-31 31-38 38-39 39-40 40-41 41-35 35-28 28-21 21-14 14-21"/>
    </vehicle>

    <vehicle id="1" type="type9" depart="0" color="1,0,0">
      <route edges="21-28 28-35 35-34 34-33 33-32 32-31 31-30 30-29 29-22 22-29 29-30 30-31 31-32 32-33 33-34 34-35 35-28 28-21 21-20 20-19 19-18 18-17 17-16 16-15 15-7 7-8 8-9 9-17 17-16 16-15 15-22 22-23 23-24 24-25 25-26 26-27 27-28 28-35 35-34 34-33 33-32 32-31 31-38 38-39 39-40 40-41 41-35 35-28 28-21 21-14 14-21"/>
    </vehicle>

    <vehicle id="2" type="type5" depart="0" color="1,0,0">
      <route edges="12-13 13-14 14-21 21-28 28-21 21-14 14-21 21-28 28-35 35-34 34-33 33-32 32-31 31-30 30-29 29-30 30-31 31-32 32-33 33-34 34-35 35-28 28-21 21-20 20-19 19-18 28-25 25-26 26-27 27-28 28-21 21-20 20-19 19-18 18-17 17-16 16-15 15-7 7-15 15-22 22-29 29-30 30-31 31-38 38-37 37-36 36-29 29-22 22-23 23-24"/>
    </vehicle>

    <vehicle id="3" type="type6" depart="0" color="1,0,0">
      <route edges="32-31 31-30 30-29 29-22 22-23 23-24 24-25 25-26 26-27 27-28 28-21 21-20 20-19 19-18 18-17 17-16 16-15 15-16 16-17 17-18 18-19 19-20 20-21 21-28 28-21 21-20 20-19 19-18 18-17 17-16 16-15 15-7 7-8 8-9 9-10 10-11 11-12 12-13 13-14 14-21 21-28 28-27 27-26 26-25 25-24 24-23 23-22 22-29 29-22 22-15 15-7 7-8 8-9"/>
    </vehicle>

    <vehicle id="4" type="type6" depart="0" color="1,0,0">
      <route edges="25-26 26-27 27-28 28-21 21-14 14-21 21-28 28-27 27-26 26-25 25-24 24-23 23-22 22-29 29-22 22-23 23-24 24-25 25-26 26-27 27-28 28-21 21-14 14-13 13-12 12-11 11-9 9-10 10-11 11-12 12-13 13-14 14-21 21-20 20-19 19-18 18-17 17-16 16-15 15-7 7-8 8-9 9-10 10-11 11-12 12-13 13-14 14-21 21-28 28-35 35-34 34-33 33-32 32-31 31-38 38-39 39-40 40-41 41-35 35-34 34-33 33-32 32-31 31-30 30-29 29-30 30-31 31-32 32-33 33-34 34-35 35-28 28-21 21-28"/>
    </vehicle>

    <vehicle id="5" type="type8" depart="0" color="1,0,0">
      <route edges="23-24 24-31 31-38 38-37 37-36 36-29 29-22 22-15 15-7 7-8 8-9 9-10 10-11 11-12 12-19 19-18 18-17 17-16 16-15 15-7 7-8 8-9 9-10 10-11 11-12 12-13 13-14 14-21 21-28 28-35 35-34 34-33 33-32 32-31 31-30 30-29 29-22 22-23 23-24 24-25 25-26 26-27 27-28 28-21 21-28"/>
    </vehicle>

    <vehicle id="6" type="type3" depart="0" color="1,0,0">
      <route edges="8-9 9-10 10-11 11-12 12-13 13-14 14-21 21-28 28-35 35-34 34-33 33-32 32-31 31-38 38-37 37-36 36-29 29-22 22-15 15-7 7-8 8-9 9-10 10-11 11-12 12-13 13-14 14-21 21-28 28-35 35-34 34-33 33-32 32-31 31-30 30-29 29-22 22-23 23-24 24-25 25-32 32-31 31-30 30-29 29-22 22-23 23-24 24-25 25-26 26-27 27-28 28-21 21-14 14-21 21-14 14-13 13-12 12-11 11-9 9-10 10-11 11-12 12-13"/>
    </vehicle>

    <vehicle id="7" type="type7" depart="0" color="1,0,0">
      <route edges="22-29 29-22 22-23 23-24 24-25 25-26 26-27 27-28 28-21 21-28 28-21 21-20 20-19 19-18 18-17 17-16 16-15 15-7 7-8 8-9 9-10 10-11 11-12 12-13 13-14 14-21 21-14 14-13 13-12 12-11 11-9 9-10 10-11 11-12 12-13 13-14 14-21 21-28 28-35 35-34 34-33 33-32 32-31 31-30 30-29 29-30 30-31 31-32 32-33 33-34 34-35 35-28 28-21 21-20 20-19 19-18 28-25 25-26"/>
    </vehicle>

    <vehicle id="8" type="type10" depart="0" color="1,0,0">
      <route edges="31-38 38-39 39-40 40-41 41-35 35-28 28-21 21-20 20-19 19-18 18-17 17-16 16-15 15-22 22-29 29-22 22-23 23-24 24-25 25-26 26-27 27-28 28-21 21-14 14-13 13-12 12-11 11-9 9-10 10-11 11-12 12-13 13-14 14-21 21-28 28-35 35-34 34-33 33-32 32-31 31-30 30-29 29-22 22-15 15-7 7-8 8-9 9-10 10-11 11-12 12-13 13-14 14-21 21-28 28-21 21-20 20-19 19-18 18-17 17-16 16-15 15-7 7-8 8-9"/>
    </vehicle>

    <vehicle id="9" type="type3" depart="0" color="1,0,0">
      <route edges="32-31 31-30 30-29 29-22 22-23 23-24 24-25 25-26 26-27 27-28 28-35 35-34 34-33 33-32 32-31 31-38 38-37 37-36 36-29 29-22 22-15 15-7 7-8 8-9 9-10 10-11 11-12 12-13 13-14 14-21 21-28 28-35 35-34 34-33 33-32 32-31 31-30 30-29 29-22 22-23 23-24 24-25 25-26 26-27 27-28 28-21 21-20 20-19 19-18 18-17 17-16 16-15 15-7 7-8 8-9 9-10 10-11 11-12 12-13 13-14 14-21 21-20 20-19 19-18"/>
    </vehicle>

    <vehicle id="10" type="type6" depart="0" color="1,0,0">
      <route edges="12-13 13-14 14-21 21-28 28-35 35-34 34-33 33-32 32-31 31-38 38-37 37-36 36-29 29-22 22-15 15-7 7-8 8-9 9-10 10-11 11-12 12-13 13-14 14-21 21-28 28-21 21-20 20-19 19-18 28-25 25-26 26-27 27-28 28-27 27-26 26-25 25-24 24-23 23-22 22-29 29-22 22-23 23-24 24-25 25-26 26-27 27-28 28-21 21-14 14-21"/>
    </vehicle>

    <vehicle id="11" type="type9" depart="0" color="1,0,0">
      <route edges="32-31 31-30 30-29 29-22 22-15 15-7 7-8 8-9 9-10 10-11 11-12 12-13 13-14 14-21 21-28 28-35 35-34 34-33 33-32 32-31 31-38 38-39 39-40 40-41 41-35 35-28 28-21 21-28 28-27 27-26 26-25 25-24 24-23 23-22 22-29 29-30 30-31 31-32 32-33 33-34 34-35 35-28 28-21 21-20 20-19 19-18 28-25 25-26 26-27 27-28 28-21 21-14 14-21 21-14 14-13 13-12 12-11 11-9 9-10 10-11 11-12 12-13"/>
    </vehicle>

    <vehicle id="12" type="type9" depart="0" color="1,0,0">
      <route edges="19-18 18-17 17-16 16-15 15-22 22-29 29-30 30-31 31-38 38-39 39-40 40-41 41-35 35-28 28-21 21-28 28-21 21-20 20-19 19-18 28-25 25-26 26-27 27-28 28-21 21-14 14-21 21-20 20-19 19-18 18-17 17-16 16-15 15-22 22-23 23-24 24-25 25-26 26-27 27-28 28-21 21-14 14-13 13-12 12-11 11-9 9-10 10-11 11-12 12-13 13-14 14-21 21-28 28-27 27-26 26-25 25-24 24-23 23-22 22-29 29-30 30-31 31-32 32-33 33-34 34-35 35-34 34-33 33-32 32-31"/>
    </vehicle>

    <vehicle id="13" type="type9" depart="0" color="1,0,0">
      <route edges="22-29 29-30 30-31 31-32 32-33 33-34 34-35 35-34 34-33 33-32 32-31 31-30 30-29 29-22 22-23 23-24 24-25 25-26 26-27 27-28 28-21 21-20 20-19 19-18 18-17 17-16 16-15 15-7 7-8 8-9 9-10 10-11 11-12 12-13 13-14 14-21 21-28 28-35 35-34 34-33 33-32 32-31 31-38 38-37 37-36 36-29 29-22 22-23 23-24 24-25 25-26 26-27 27-28 28-21 21-14 14-13 13-12 12-11 11-9 9-10 10-11 11-12 12-13 13-14 14-21 21-28 28-21 21-14 14-21"/>
    </vehicle>

    <vehicle id="14" type="type8" depart="0" color="1,0,0">
      <route edges="19-18 18-17 17-16 16-15 15-7 7-8 8-9 9-10 10-11 11-12 12-13 13-14 14-21 21-28 28-35 35-34 34-33 33-32 32-31 31-38 38-37 37-36 36-29 29-22 22-23 23-24 24-25 25-26 26-27 27-28 28-21 21-28 28-27 27-26 26-25 25-24 24-23 23-22 22-29 29-22 22-15 15-7 7-8 8-9 9-10 10-11 11-12 12-13 13-14 14-21 21-14 14-13 13-12 12-11 11-9 9-10 10-11 11-12 12-13"/>
    </vehicle>

    <vehicle id="15" type="type1" depart="0" color="1,0,0">
      <route edges="14-21 21-20 20-19 19-18 18-17 17-16 16-15 15-22 22-23 23-24 24-25 25-26 26-27 27-28 28-21 21-20 20-19 19-18 18-17 17-16 16-15 15-22 22-29 29-30 30-31 31-32 32-33 33-34 34-35 35-28 28-21 21-28 28-21 21-20 20-19 19-18 18-17 17-16 16-15 15-7 7-8 8-9 9-17 17-16 16-15 15-7 7-8 8-9 9-10 10-11 11-12 12-13 13-14 14-21 21-28 28-35 35-34 34-33 33-32 32-31 31-30 30-29 29-22 22-15 15-7 7-8 8-9 9-10 10-11 11-12 12-13"/>
    </vehicle>

    <vehicle id="16" type="type6" depart="0" color="1,0,0">
      <route edges="21-28 28-21 21-14 14-21 21-20 20-19 19-18 28-25 25-26 26-27 27-28 28-35 35-34 34-33 33-32 32-31 31-38 38-37 37-36 36-29 29-22 22-23 23-24 24-25 25-26 26-27 27-28 28-21 21-20 20-19 19-18 18-17 17-16 16-15 15-7 7-8 8-9"/>
    </vehicle>

    <vehicle id="17" type="type5" depart="0" color="1,0,0">
      <route edges="19-18 18-17 17-16 16-15 15-7 7-8 8-9 9-10 10-11 11-12 12-13 13-14 14-21 21-28 28-35 35-34 34-33 33-32 32-31 31-38 38-37 37-36 36-29 29-22 22-29 29-22 22-23 23-24 24-25 25-26 26-27 27-28 28-21 21-20 20-19 19-18 18-17 17-16 16-15 15-7 7-8 8-9 9-17 17-16 16-15 15-22 22-23 23-24 24-25 25-26 26-27 27-28 28-21 21-20 20-19 19-18 18-17 17-16 16-15 15-7 7-8 8-9 9-10 10-11 11-12 12-13 13-14 14-21 21-28"/>
    </vehicle>

    <vehicle id="18" type="type10" depart="0" color="1,0,0">
      <route edges="31-38 38-39 39-40 40-41 41-35 35-28 28-21 21-14 14-13 13-12 12-11 11-9 9-10 10-11 11-12 12-13 13-14 14-21 21-28 28-35 35-34 34-33 33-32 32-31 31-30 30-29 29-30 30-31 31-32 32-33 33-34 34-35 35-28 28-21 21-28 28-21 21-20 20-19 19-18 18-17 17-16 16-15 15-22 22-23 23-24 24-25 25-26 26-27 27-28 28-27 27-26 26-25 25-24 24-23 23-22 22-29 29-30 30-31 31-32 32-33 33-34 34-35 35-28 28-21 21-14 14-21 21-20 20-19 19-18 18-17 17-16 16-15 15-7"/>
    </vehicle>

    <vehicle id="19" type="type6" depart="0" color="1,0,0">
      <route edges="31-38 38-37 37-36 36-29 29-22 22-23 23-24 24-25 25-26 26-27 27-28 28-21 21-28 28-21 21-14 14-21 21-20 20-19 19-18 18-17 17-16 16-15 15-7 7-8 8-9 9-10 10-11 11-12 12-13 13-14 14-21 21-20 20-19 19-18 18-17 17-16 16-15 15-7 7-8 8-9 9-17 17-16 16-15 15-22 22-23 23-24"/>
    </vehicle>

    <vehicle id="20" type="type4" depart="0" color="1,0,0">
      <route edges="12-13 13-14 14-21 21-20 20-19 19-18 18-17 17-16 16-15 15-7 7-8 8-9 9-10 10-11 11-12 12-19 19-18 28-25 25-32 32-31 31-30 30-29 29-22 22-23 23-24 24-25 25-26 26-27 27-28 28-21 21-20 20-19 19-18 18-17 17-16 16-15 15-7 7-8 8-9 9-17 17-16 16-15 15-22 22-23 23-24 24-25 25-26 26-27 27-28 28-35 35-34 34-33 33-32 32-31 31-38 38-39 39-40 40-41 41-35 35-28 28-21 21-14 14-21"/>
    </vehicle>

    <vehicle id="21" type="type6" depart="0" color="1,0,0">
      <route edges="25-26 26-27 27-28 28-21 21-20 20-19 19-18 18-17 17-16 16-15 15-7 7-8 8-9 9-10 10-11 11-12 12-13 13-14 14-21 21-14 14-13 13-12 12-11 11-9 9-10 10-11 11-12 12-13 13-14 14-21 21-28 28-35 35-34 34-33 33-32 32-31 31-30 30-29 29-22 22-15 15-7 7-8 8-9 9-10 10-11 11-12 12-13 13-14 14-21 21-28 28-35 35-34 34-33 33-32 32-31 31-38 38-39 39-40 40-41 41-35 35-28 28-21 21-20 20-19 19-18"/>
    </vehicle>

    <vehicle id="22" type="type7" depart="0" color="1,0,0">
      <route edges="15-7 7-15 15-22 22-23 23-24 24-25 25-26 26-27 27-28 28-21 21-14 14-13 13-12 12-11 11-9 9-10 10-11 11-12 12-13 13-14 14-21 21-28 28-27 27-26 26-25 25-24 24-23 23-22 22-29 29-22 22-23 23-24 24-25 25-26 26-27 27-28 28-35 35-34 34-33 33-32 32-31 31-30 30-29 29-30 30-31 31-32 32-33 33-34 34-35 35-28 28-21 21-20 20-19 19-18 18-17 17-16 16-15 15-7 7-8 8-9"/>
    </vehicle>

    <vehicle id="23" type="type3" depart="0" color="1,0,0">
      <route edges="25-26 26-27 27-28 28-21 21-20 20-19 19-18 18-17 17-16 16-15 15-7 7-8 8-9 9-10 10-11 11-12 12-13 13-14 14-21 21-20 20-19 19-18 18-17 17-16 16-15 15-7 7-8 8-9 9-17 17-16 16-15 15-22 22-29 29-30 30-31 31-32 32-33 33-34 34-35 35-28 28-21 21-28 28-35 35-34 34-33 33-32 32-31 31-30 30-29 29-22 22-23 23-24 24-25 25-26 26-27 27-28 28-21 21-14 14-21 21-28 28-35 35-34 34-33 33-32 32-31"/>
    </vehicle>

    <vehicle id="24" type="type5" depart="0" color="1,0,0">
      <route edges="19-18 18-17 17-16 16-15 15-22 22-29 29-30 30-31 31-38 38-39 39-40 40-41 41-35 35-28 28-21 21-14 14-21 21-28 28-35 35-34 34-33 33-32 32-31 31-30 30-29 29-22 22-29 29-22 22-23 23-24 24-25 25-26 26-27 27-28 28-21 21-20 20-19 19-18 18-17 17-16 16-15 15-7 7-8 8-9 9-17 17-16 16-15 15-22 22-23 23-24 24-25 25-26"/>
    </vehicle>

    <vehicle id="25" type="type6" depart="0" color="1,0,0">
      <route edges="8-9 9-17 17-16 16-15 15-22 22-23 23-24 24-25 25-26 26-27 27-28 28-21 21-14 14-21 21-28 28-27 27-26 26-25 25-24 24-23 23-22 22-29 29-22 22-15 15-7 7-8 8-9 9-10 10-11 11-12 12-13 13-14 14-21 21-20 20-19 19-18 18-17 17-16 16-15 15-22 22-23 23-24 24-25 25-26 26-27 27-28 28-21 21-20 20-19 19-18 18-17 17-16 16-15 15-7 7-15 15-22 22-29 29-30 30-31 31-38"/>
    </vehicle>

    <vehicle id="26" type="type8" depart="0" color="1,0,0">
      <route edges="14-21 21-28 28-35 35-34 34-33 33-32 32-31 31-38 38-37 37-36 36-29 29-22 22-15 15-7 7-8 8-9 9-10 10-11 11-12 12-19 19-18 18-17 17-16 16-15 15-22 22-23 23-24 24-25 25-26 26-27 27-28 28-21 21-14 14-13 13-12 12-11 11-9 9-10 10-11 11-12 12-13 13-14 14-21 21-20 20-19 19-18 18-17 17-16 16-15 15-7 7-8 8-9 9-17 17-16 16-15 15-22 22-23 23-24 24-25 25-26 26-27 27-28 28-27 27-26 26-25 25-24 24-23 23-22 22-29"/>
    </vehicle>

    <vehicle id="27" type="type2" depart="0" color="1,0,0">
      <route edges="31-38 38-39 39-40 40-41 41-35 35-28 28-21 21-14 14-13 13-12 12-11 11-9 9-10 10-11 11-12 12-13 13-14 14-21 21-20 20-19 19-18 18-17 17-16 16-15 15-22 22-23 23-24 24-25 25-26 26-27 27-28 28-35 35-34 34-33 33-32 32-31 31-30 30-29 29-30 30-31 31-32 32-33 33-34 34-35 35-28 28-21 21-20 20-19 19-18 18-17 17-16 16-15 15-7 7-8 8-9 9-17 17-16 16-15 15-7 7-8 8-9 9-10 10-11 11-12 12-13 13-14 14-21"/>
    </vehicle>

    <vehicle id="28" type="type4" depart="0" color="1,0,0">
      <route edges="8-9 9-10 10-11 11-12 12-13 13-14 14-21 21-28 28-35 35-34 34-33 33-32 32-31 31-38 38-37 37-36 36-29 29-22 22-23 23-24 24-25 25-26 26-27 27-28 28-21 21-20 20-19 19-18 18-17 17-16 16-15 15-7 7-8 8-9 9-10 10-11 11-12 12-13 13-14 14-21 21-20 20-19 19-18 18-17 17-16 16-15 15-16 16-17 17-18 18-19 19-20 20-21 21-28 28-35 35-34 34-33 33-32 32-31"/>
    </vehicle>

    <vehicle id="29" type="type4" depart="0" color="1,0,0">
      <route edges="32-31 31-30 30-29 29-22 22-15 15-7 7-8 8-9 9-10 10-11 11-12 12-13 13-14 14-21 21-28 28-35 35-34 34-33 33-32 32-31 31-38 38-39 39-40 40-41 41-35 35-28 28-21 21-28 28-27 27-26 26-25 25-24 24-23 23-22 22-29 29-30 30-31 31-32 32-33 33-34 34-35 35-28 28-21 21-20 20-19 19-18 28-25 25-26 26-27 27-28 28-21 21-14 14-21 21-14 14-13 13-12 12-11 11-9 9-10 10-11 11-12 12-13"/>
    </vehicle>

    <vehicle id="30" type="type9" depart="0" color="1,0,0">
      <route edges="32-31 31-30 30-29 29-30 30-31 31-32 32-33 33-34 34-35 35-28 28-21 21-14 14-21 21-14 14-13 13-12 12-11 11-9 9-10 10-11 11-12 12-13 13-14 14-21 21-28 28-21 21-20 20-19 19-18 18-17 17-16 16-15 15-7 7-8 8-9 9-10 10-11 11-12 12-13 13-14 14-21 21-28 28-35 35-34 34-33 33-32 32-31 31-38 38-39 39-40 40-41 41-35 35-28 28-21 21-20 20-19 19-18 28-25 25-26"/>
    </vehicle>

    <vehicle id="31" type="type8" depart="0" color="1,0,0">
      <route edges="8-9 9-10 10-11 11-12 12-13 13-14 14-21 21-28 28-35 35-34 34-33 33-32 32-31 31-38 38-39 39-40 40-41 41-35 35-28 28-21 21-14 14-21 21-28 28-27 27-26 26-25 25-24 24-23 23-22 22-29 29-22 22-23 23-24 24-25 25-26 26-27 27-28 28-21 21-28 28-35 35-34 34-33 33-32 32-31 31-30 30-29 29-22 22-15 15-7 7-8 8-9 9-10 10-11 11-12 12-13"/>
    </vehicle>

    <vehicle id="32" type="type4" depart="0" color="1,0,0">
      <route edges="19-18 28-25 25-32 32-31 31-38 38-37 37-36 36-29 29-22 22-29 29-22 22-23 23-24 24-25 25-26 26-27 27-28 28-21 21-14 14-21 21-20 20-19 19-18 18-17 17-16 16-15 15-7 7-8 8-9 9-17 17-16 16-15 15-22 22-23 23-24 24-25 25-26"/>
    </vehicle>

    <vehicle id="33" type="type3" depart="0" color="1,0,0">
      <route edges="32-31 31-30 30-29 29-30 30-31 31-32 32-33 33-34 34-35 35-28 28-21 21-14 14-21 21-20 20-19 19-18 18-17 17-16 16-15 15-7 7-15 15-22 22-29 29-30 30-31 31-38 38-37 37-36 36-29 29-22 22-15 15-7 7-8 8-9 9-17 17-16 16-15 15-22 22-23 23-24 24-25 25-26 26-27 27-28 28-21 21-28"/>
    </vehicle>

    <vehicle id="34" type="type9" depart="0" color="1,0,0">
      <route edges="21-28 28-21 21-20 20-19 19-18 18-17 17-16 16-15 15-7 7-8 8-9 9-10 10-11 11-12 12-13 13-14 14-21 21-20 20-19 19-18 18-17 17-16 16-15 15-7 7-8 8-9 9-10 10-11 11-12 12-13 13-14 14-21 21-20 20-19 19-18 18-17 17-16 16-15 15-22 22-23 23-24 24-25 25-26 26-27 27-28 28-27 27-26 26-25 25-24 24-23 23-22 22-29 29-22 22-23 23-24 24-25 25-26 26-27 27-28 28-35 35-34 34-33 33-32 32-31"/>
    </vehicle>

    <vehicle id="35" type="type3" depart="0" color="1,0,0">
      <route edges="31-38 38-37 37-36 36-29 29-22 22-15 15-7 7-8 8-9 9-10 10-11 11-12 12-13 13-14 14-21 21-28 28-35 35-34 34-33 33-32 32-31 31-30 30-29 29-30 30-31 31-32 32-33 33-34 34-35 35-28 28-21 21-20 20-19 19-18 18-17 17-16 16-15 15-22 22-29 29-22 22-23 23-24 24-25 25-26 26-27 27-28 28-21 21-20 20-19 19-18 18-17 17-16 16-15 15-7"/>
    </vehicle>

    <vehicle id="36" type="type3" depart="0" color="1,0,0">
      <route edges="15-7 7-15 15-22 22-23 23-24 24-25 25-26 26-27 27-28 28-21 21-14 14-13 13-12 12-11 11-9 9-10 10-11 11-12 12-13 13-14 14-21 21-28 28-27 27-26 26-25 25-24 24-23 23-22 22-29 29-22 22-23 23-24 24-25 25-26 26-27 27-28 28-35 35-34 34-33 33-32 32-31 31-30 30-29 29-30 30-31 31-32 32-33 33-34 34-35 35-28 28-21 21-20 20-19 19-18 18-17 17-16 16-15 15-7 7-8 8-9"/>
    </vehicle>

    <vehicle id="37" type="type6" depart="0" color="1,0,0">
      <route edges="22-29 29-30 30-31 31-38 38-39 39-40 40-41 41-35 35-28 28-21 21-20 20-19 19-18 18-17 17-16 16-15 15-16 16-17 17-18 18-19 19-20 20-21 21-28 28-21 21-14 14-13 13-12 12-11 11-9 9-10 10-11 11-12 12-13 13-14 14-21 21-20 20-19 19-18 18-17 17-16 16-15 15-7 7-8 8-9 9-17 17-16 16-15 15-22 22-23 23-24 24-25 25-26"/>
    </vehicle>

    <vehicle id="38" type="type4" depart="0" color="1,0,0">
      <route edges="25-26 26-27 27-28 28-35 35-34 34-33 33-32 32-31 31-30 30-29 29-30 30-31 31-32 32-33 33-34 34-35 35-28 28-21 21-20 20-19 19-18 18-17 17-16 16-15 15-22 22-29 29-22 22-15 15-7 7-8 8-9 9-10 10-11 11-12 12-13 13-14 14-21 21-28 28-35 35-34 34-33 33-32 32-31 31-38 38-39 39-40 40-41 41-35 35-28 28-21 21-14 14-13 13-12 12-11 11-9 9-10 10-11 11-12 12-13"/>
    </vehicle>

    <vehicle id="39" type="type2" depart="0" color="1,0,0">
      <route edges="32-31 31-30 30-29 29-30 30-31 31-32 32-33 33-34 34-35 35-28 28-21 21-20 20-19 19-18 18-17 17-16 16-15 15-22 22-29 29-30 30-31 31-38 38-37 37-36 36-29 29-22 22-23 23-24 24-25 25-26 26-27 27-28 28-21 21-20 20-19 19-18 18-17 17-16 16-15 15-7 7-8 8-9 9-17 17-16 16-15 15-22 22-29 29-22 22-15 15-7 7-8 8-9 9-10 10-11 11-12 12-13 13-14 14-21"/>
    </vehicle>

    <vehicle id="40" type="type7" depart="0" color="1,0,0">
      <route edges="14-21 21-28 28-35 35-34 34-33 33-32 32-31 31-30 30-29 29-22 22-15 15-7 7-8 8-9 9-17 17-16 16-15 15-7 7-15 15-22 22-23 23-24 24-31 31-38 38-37 37-36 36-29 29-22 22-29 29-22 22-15 15-7 7-8 8-9 9-10 10-11 11-12 12-13 13-14 14-21 21-20 20-19 19-18 28-25 25-26"/>
    </vehicle>

    <vehicle id="41" type="type4" depart="0" color="1,0,0">
      <route edges="21-28 28-21 21-20 20-19 19-18 18-17 17-16 16-15 15-7 7-15 15-22 22-23 23-24 24-25 25-26 26-27 27-28 28-21 21-14 14-13 13-12 12-11 11-9 9-10 10-11 11-12 12-13 13-14 14-21 21-28 28-35 35-34 34-33 33-32 32-31 31-38 38-37 37-36 36-29 29-22 22-29 29-30 30-31 31-32 32-33 33-34 34-35 35-28 28-21 21-14 14-21 21-28 28-35 35-34 34-33 33-32 32-31"/>
    </vehicle>

    <vehicle id="42" type="type1" depart="0" color="1,0,0">
      <route edges="23-24 24-25 25-26 26-27 27-28 28-27 27-26 26-25 25-24 24-23 23-22 22-29 29-30 30-31 31-32 32-33 33-34 34-35 35-28 28-21 21-20 20-19 19-18 18-17 17-16 16-15 15-16 16-17 17-18 18-19 19-20 20-21 21-28 28-35 35-34 34-33 33-32 32-31 31-38 38-39 39-40 40-41 41-35 35-34 34-33 33-32 32-31 31-30 30-29 29-30 30-31 31-32 32-33 33-34 34-35 35-28 28-21 21-14 14-21 21-20 20-19 19-18 18-17 17-16 16-15 15-7 7-8 8-9"/>
    </vehicle>

    <vehicle id="43" type="type7" depart="0" color="1,0,0">
      <route edges="22-29 29-30 30-31 31-32 32-33 33-34 34-35 35-34 34-33 33-32 32-31 31-30 30-29 29-30 30-31 31-32 32-33 33-34 34-35 35-28 28-21 21-20 20-19 19-18 18-17 17-16 16-15 15-7 7-8 8-9 9-10 10-11 11-12 12-13 13-14 14-21 21-20 20-19 19-18 28-25 25-26 26-27 27-28 28-21 21-28 28-21 21-14 14-21 21-20 20-19 19-18 18-17 17-16 16-15 15-22 22-23 23-24 24-25 25-26 26-27 27-28 28-21 21-20 20-19 19-18 18-17 17-16 16-15 15-7"/>
    </vehicle>

    <vehicle id="44" type="type10" depart="0" color="1,0,0">
      <route edges="19-18 18-17 17-16 16-15 15-7 7-8 8-9 9-17 17-16 16-15 15-22 22-23 23-24 24-25 25-26 26-27 27-28 28-21 21-20 20-19 19-18 18-17 17-16 16-15 15-7 7-15 15-22 22-29 29-30 30-31 31-32 32-33 33-34 34-35 35-34 34-33 33-32 32-31 31-30 30-29 29-22 22-15 15-7 7-8 8-9 9-10 10-11 11-12 12-13 13-14 14-21 21-20 20-19 19-18 28-25 25-26 26-27 27-28 28-35 35-34 34-33 33-32 32-31 31-38"/>
    </vehicle>

    <vehicle id="45" type="type6" depart="0" color="1,0,0">
      <route edges="21-28 28-21 21-14 14-21 21-14 14-13 13-12 12-11 11-9 9-10 10-11 11-12 12-13 13-14 14-21 21-20 20-19 19-18 28-25 25-32 32-31 31-30 30-29 29-22 22-15 15-7 7-8 8-9 9-17 17-16 16-15 15-7 7-15 15-22 22-23 23-24 24-25 25-26 26-27 27-28 28-27 27-26 26-25 25-24 24-23 23-22 22-29"/>
    </vehicle>

    <vehicle id="46" type="type1" depart="0" color="1,0,0">
      <route edges="15-7 7-8 8-9 9-10 10-11 11-12 12-13 13-14 14-21 21-28 28-35 35-34 34-33 33-32 32-31 31-30 30-29 29-22 22-15 15-7 7-8 8-9 9-10 10-11 11-12 12-13 13-14 14-21 21-20 20-19 19-18 18-17 17-16 16-15 15-7 7-8 8-9 9-10 10-11 11-12 12-13 13-14 14-21 21-28 28-21 21-14 14-21 21-28 28-27 27-26 26-25 25-24 24-23 23-22 22-29 29-30 30-31 31-38 38-39 39-40 40-41 41-35 35-28 28-21 21-20 20-19 19-18"/>
    </vehicle>

    <vehicle id="47" type="type2" depart="0" color="1,0,0">
      <route edges="12-13 13-14 14-21 21-28 28-21 21-20 20-19 19-18 18-17 17-16 16-15 15-7 7-8 8-9 9-10 10-11 11-12 12-13 13-14 14-21 21-28 28-35 35-34 34-33 33-32 32-31 31-38 38-37 37-36 36-29 29-22 22-23 23-24 24-25 25-26 26-27 27-28 28-21 21-20 20-19 19-18 18-17 17-16 16-15 15-22 22-29 29-22 22-15 15-7"/>
    </vehicle>

    <vehicle id="48" type="type7" depart="0" color="1,0,0">
      <route edges="19-18 18-17 17-16 16-15 15-22 22-29 29-30 30-31 31-38 38-37 37-36 36-29 29-22 22-29 29-22 22-15 15-7 7-8 8-9 9-10 10-11 11-12 12-13 13-14 14-21 21-28 28-21 21-20 20-19 19-18 28-25 25-26 26-27 27-28 28-35 35-34 34-33 33-32 32-31 31-30 30-29 29-22 22-23 23-24 24-25 25-26 26-27 27-28 28-21 21-14 14-21 21-14 14-13 13-12 12-11 11-9 9-10 10-11 11-12 12-13"/>
    </vehicle>

    <vehicle id="49" type="type3" depart="0" color="1,0,0">
      <route edges="12-13 13-14 14-21 21-20 20-19 19-18 18-17 17-16 16-15 15-7 7-15 15-22 22-29 29-30 30-31 31-38 38-37 37-36 36-29 29-22 22-23 23-24 24-25 25-26 26-27 27-28 28-21 21-28 28-27 27-26 26-25 25-24 24-23 23-22 22-29 29-30 30-31 31-32 32-33 33-34 34-35 35-28 28-21 21-14 14-21 21-20 20-19 19-18 18-17 17-16 16-15 15-22 22-23 23-24"/>
    </vehicle>

    <vehicle id="50" type="type8" depart="0" color="1,0,0">
      <route edges="32-31 31-30 30-29 29-22 22-23 23-24 24-25 25-26 26-27 27-28 28-21 21-20 20-19 19-18 18-17 17-16 16-15 15-7 7-8 8-9 9-10 10-11 11-12 12-13 13-14 14-21 21-20 20-19 19-18 18-17 17-16 16-15 15-7 7-8 8-9 9-17 17-16 16-15 15-22 22-29 29-30 30-31 31-38 38-37 37-36 36-29 29-22 22-23 23-24 24-25 25-26 26-27 27-28 28-21 21-14 14-13 13-12 12-11 11-9 9-10 10-11 11-12 12-13"/>
    </vehicle>

    <vehicle id="51" type="type7" depart="0" color="1,0,0">
      <route edges="32-31 31-30 30-29 29-30 30-31 31-32 32-33 33-34 34-35 35-28 28-21 21-14 14-21 21-14 14-13 13-12 12-11 11-9 9-10 10-11 11-12 12-13 13-14 14-21 21-28 28-21 21-20 20-19 19-18 18-17 17-16 16-15 15-7 7-8 8-9 9-10 10-11 11-12 12-13 13-14 14-21 21-28 28-35 35-34 34-33 33-32 32-31 31-38 38-39 39-40 40-41 41-35 35-28 28-21 21-20 20-19 19-18 28-25 25-26"/>
    </vehicle>

    <vehicle id="52" type="type2" depart="0" color="1,0,0">
      <route edges="14-21 21-28 28-35 35-34 34-33 33-32 32-31 31-30 30-29 29-22 22-15 15-7 7-8 8-9 9-10 10-11 11-12 12-13 13-14 14-21 21-20 20-19 19-18 28-25 25-26 26-27 27-28 28-21 21-20 20-19 19-18 18-17 17-16 16-15 15-22 22-29 29-22 22-15 15-7 7-8 8-9 9-10 10-11 11-12 12-13 13-14 14-21 21-28 28-35 35-34 34-33 33-32 32-31 31-38"/>
    </vehicle>

    <vehicle id="53" type="type6" depart="0" color="1,0,0">
      <route edges="21-28 28-21 21-14 14-13 13-12 12-11 11-9 9-10 10-11 11-12 12-13 13-14 14-21 21-28 28-35 35-34 34-33 33-32 32-31 31-30 30-29 29-22 22-15 15-7 7-8 8-9 9-17 17-16 16-15 15-22 22-23 23-24 24-25 25-26 26-27 27-28 28-21 21-20 20-19 19-18 18-17 17-16 16-15 15-16 16-17 17-18 18-19 19-20 20-21 21-14 14-21 21-28 28-35 35-34 34-33 33-32 32-31 31-38"/>
    </vehicle>

    <vehicle id="54" type="type1" depart="0" color="1,0,0">
      <route edges="32-31 31-30 30-29 29-22 22-23 23-24 24-25 25-26 26-27 27-28 28-27 27-26 26-25 25-24 24-23 23-22 22-29 29-30 30-31 31-32 32-33 33-34 34-35 35-28 28-21 21-20 20-19 19-18 18-17 17-16 16-15 15-7 7-8 8-9 9-10 10-11 11-12 12-13 13-14 14-21 21-28 28-35 35-34 34-33 33-32 32-31 31-38 38-37 37-36 36-29 29-22 22-15 15-7"/>
    </vehicle>

    <vehicle id="55" type="type6" depart="0" color="1,0,0">
      <route edges="8-9 9-10 10-11 11-12 12-13 13-14 14-21 21-28 28-21 21-14 14-21 21-28 28-35 35-34 34-33 33-32 32-31 31-30 30-29 29-22 22-23 23-24 24-25 25-26 26-27 27-28 28-27 27-26 26-25 25-24 24-23 23-22 22-29 29-30 30-31 31-32 32-33 33-34 34-35 35-28 28-21 21-20 20-19 19-18 18-17 17-16 16-15 15-7 7-15 15-22 22-29 29-30 30-31 31-38"/>
    </vehicle>

    <vehicle id="56" type="type9" depart="0" color="1,0,0">
      <route edges="25-26 26-27 27-28 28-21 21-20 20-19 19-18 18-17 17-16 16-15 15-7 7-8 8-9 9-10 10-11 11-12 12-13 13-14 14-21 21-20 20-19 19-18 18-17 17-16 16-15 15-7 7-8 8-9 9-17 17-16 16-15 15-22 22-29 29-30 30-31 31-32 32-33 33-34 34-35 35-28 28-21 21-28 28-35 35-34 34-33 33-32 32-31 31-30 30-29 29-22 22-23 23-24 24-25 25-26 26-27 27-28 28-21 21-14 14-21 21-28 28-35 35-34 34-33 33-32 32-31"/>
    </vehicle>

    <vehicle id="57" type="type6" depart="0" color="1,0,0">
      <route edges="8-9 9-10 10-11 11-12 12-19 19-18 18-17 17-16 16-15 15-22 22-23 23-24 24-25 25-26 26-27 27-28 28-27 27-26 26-25 25-24 24-23 23-22 22-29 29-22 22-15 15-7 7-15 15-22 22-29 29-30 30-31 31-38 38-39 39-40 40-41 41-35 35-34 34-33 33-32 32-31 31-30 30-29 29-30 30-31 31-32 32-33 33-34 34-35 35-28 28-21 21-14 14-21 21-20 20-19 19-18 28-25 25-26"/>
    </vehicle>

    <vehicle id="58" type="type5" depart="0" color="1,0,0">
      <route edges="12-13 13-14 14-21 21-28 28-21 21-20 20-19 19-18 18-17 17-16 16-15 15-7 7-8 8-9 9-10 10-11 11-12 12-13 13-14 14-21 21-28 28-35 35-34 34-33 33-32 32-31 31-38 38-37 37-36 36-29 29-22 22-23 23-24 24-25 25-26 26-27 27-28 28-21 21-20 20-19 19-18 18-17 17-16 16-15 15-22 22-29 29-22 22-15 15-7"/>
    </vehicle>

    <vehicle id="59" type="type4" depart="0" color="1,0,0">
      <route edges="31-38 38-37 37-36 36-29 29-22 22-15 15-7 7-8 8-9 9-10 10-11 11-12 12-13 13-14 14-21 21-28 28-27 27-26 26-25 25-24 24-23 23-22 22-29 29-22 22-15 15-7 7-8 8-9 9-10 10-11 11-12 12-13 13-14 14-21 21-20 20-19 19-18 28-25 25-32 32-31 31-30 30-29 29-22 22-23 23-24 24-25 25-26"/>
    </vehicle>

    <vehicle id="60" type="type9" depart="0" color="1,0,0">
      <route edges="32-31 31-38 38-37 37-36 36-29 29-22 22-29 29-22 22-23 23-24 24-25 25-26 26-27 27-28 28-21 21-20 20-19 19-18 18-17 17-16 16-15 15-7 7-8 8-9 9-10 10-11 11-12 12-13 13-14 14-21 21-20 20-19 19-18 18-17 17-16 16-15 15-16 16-17 17-18 18-19 19-20 20-21 21-28 28-21 21-20 20-19 19-18 18-17 17-16 16-15 15-7"/>
    </vehicle>

    <vehicle id="61" type="type10" depart="0" color="1,0,0">
      <route edges="32-31 31-30 30-29 29-30 30-31 31-32 32-33 33-34 34-35 35-28 28-21 21-28 28-35 35-34 34-33 33-32 32-31 31-38 38-37 37-36 36-29 29-22 22-15 15-7 7-8 8-9 9-17 17-16 16-15 15-22 22-29 29-22 22-15 15-7 7-8 8-9 9-10 10-11 11-12 12-13 13-14 14-21 21-20 20-19 19-18 18-17 17-16 16-15 15-22 22-23 23-24 24-25 25-26 26-27 27-28 28-21 21-20 20-19 19-18"/>
    </vehicle>

    <vehicle id="62" type="type8" depart="0" color="1,0,0">